
     RDKit          3D

 15 15  0  0  0  0  0  0  0  0999 V2000
   33.4493    3.7081   13.7261 C   0  0  0  0  0  0  0  0  0  0  0  0
   32.9739    4.5244   12.5405 C   0  0  1  0  0  0  0  0  0  0  0  0
   33.7673    4.1334   11.3555 C   0  0  0  0  0  0  0  0  0  0  0  0
   31.4971    4.4363   12.4047 C   0  0  0  0  0  0  0  0  0  0  0  0
   30.8438    5.5995   11.8218 C   0  0  0  0  0  0  0  0  0  0  0  0
   30.2641    6.5631   12.6037 C   0  0  0  0  0  0  0  0  0  0  0  0
   29.6369    7.6819   12.0420 C   0  0  0  0  0  0  0  0  0  0  0  0
   29.6010    7.8186   10.6714 C   0  0  0  0  0  0  0  0  0  0  0  0
   30.1856    6.8457    9.9047 C   0  0  0  0  0  0  0  0  0  0  0  0
   30.7999    5.7495   10.4603 C   0  0  0  0  0  0  0  0  0  0  0  0
   28.9322    9.0138   10.0340 C   0  0  1  0  0  0  0  0  0  0  0  0
   28.1865    9.7195   11.1366 C   0  0  0  0  0  0  0  0  0  0  0  0
   29.9211    9.8404    9.3604 C   0  0  0  0  0  0  0  0  0  0  0  0
   31.2320    9.8766    9.7898 O   0  0  0  0  0  0  0  0  0  0  0  0
   29.5957   10.5366    8.3738 O   0  0  0  0  0  0  0  0  0  0  0  0
  2  1  1  1
  3  2  1  1
  2  4  1  0
  4  5  1  1
  5  6  2  0
  6  7  1  0
  7  8  2  0
  8  9  1  0
  9 10  2  0
  8 11  1  0
 12 11  1  1
 11 13  1  1
 13 14  1  0
 13 15  2  0
 10  5  1  0
M  END
$$$$
