
     RDKit          3D

 15 15  0  0  0  0  0  0  0  0999 V2000
   26.8525   13.3278   16.9508 C   0  0  0  0  0  0  0  0  0  0  0  0
   26.4171   14.4336   16.0097 C   0  0  1  0  0  0  0  0  0  0  0  0
   26.0741   13.8286   14.7046 C   0  0  0  0  0  0  0  0  0  0  0  0
   25.3693   15.2752   16.6429 C   0  0  0  0  0  0  0  0  0  0  0  0
   24.9095   16.4120   15.8579 C   0  0  0  0  0  0  0  0  0  0  0  0
   25.7875   17.2265   15.1933 C   0  0  0  0  0  0  0  0  0  0  0  0
   25.3440   18.3188   14.4379 C   0  0  0  0  0  0  0  0  0  0  0  0
   23.9938   18.5822   14.3599 C   0  0  0  0  0  0  0  0  0  0  0  0
   23.1300   17.7575   15.0305 C   0  0  0  0  0  0  0  0  0  0  0  0
   23.5697   16.6867   15.7707 C   0  0  0  0  0  0  0  0  0  0  0  0
   23.4830   19.7528   13.5533 C   0  0  1  0  0  0  0  0  0  0  0  0
   22.2092   19.2898   12.8953 C   0  0  0  0  0  0  0  0  0  0  0  0
   23.3215   20.9177   14.4089 C   0  0  0  0  0  0  0  0  0  0  0  0
   22.3151   20.9764   15.3511 O   0  0  0  0  0  0  0  0  0  0  0  0
   24.0987   21.8917   14.3027 O   0  0  0  0  0  0  0  0  0  0  0  0
  2  1  1  1
  3  2  1  1
  2  4  1  0
  4  5  1  1
  5  6  2  0
  6  7  1  0
  7  8  2  0
  8  9  1  0
  9 10  2  0
  8 11  1  0
 12 11  1  1
 11 13  1  1
 13 14  1  0
 13 15  2  0
 10  5  1  0
M  END
$$$$
