
     RDKit          3D

 15 15  0  0  0  0  0  0  0  0999 V2000
   32.1585    3.9375   13.4847 C   0  0  0  0  0  0  0  0  0  0  0  0
   31.9752    5.2923   12.8299 C   0  0  1  0  0  0  0  0  0  0  0  0
   33.2997    5.7825   12.3914 C   0  0  0  0  0  0  0  0  0  0  0  0
   30.9167    5.2302   11.7894 C   0  0  0  0  0  0  0  0  0  0  0  0
   30.6154    6.4855   11.1161 C   0  0  0  0  0  0  0  0  0  0  0  0
   29.7529    7.4009   11.6583 C   0  0  0  0  0  0  0  0  0  0  0  0
   29.4647    8.6082   11.0103 C   0  0  0  0  0  0  0  0  0  0  0  0
   30.0614    8.8837    9.7993 C   0  0  0  0  0  0  0  0  0  0  0  0
   30.9213    7.9573    9.2716 C   0  0  0  0  0  0  0  0  0  0  0  0
   31.2011    6.7737    9.9111 C   0  0  0  0  0  0  0  0  0  0  0  0
   29.7717   10.1771    9.0747 C   0  0  1  0  0  0  0  0  0  0  0  0
   28.8490    9.8271    7.9364 C   0  0  0  0  0  0  0  0  0  0  0  0
   29.2290   11.1587   10.0005 C   0  0  0  0  0  0  0  0  0  0  0  0
   27.9703   11.0058   10.5450 O   0  0  0  0  0  0  0  0  0  0  0  0
   29.9003   12.1643   10.3197 O   0  0  0  0  0  0  0  0  0  0  0  0
  2  1  1  6
  3  2  1  1
  2  4  1  0
  4  5  1  1
  5  6  2  0
  6  7  1  0
  7  8  2  0
  8  9  1  0
  9 10  2  0
  8 11  1  0
 12 11  1  1
 11 13  1  1
 13 14  1  0
 13 15  2  0
 10  5  1  0
M  END
$$$$
