
     RDKit          3D

 15 15  0  0  0  0  0  0  0  0999 V2000
   25.0755   13.6263   19.7791 C   0  0  0  0  0  0  0  0  0  0  0  0
   24.3438   14.4604   18.7462 C   0  0  1  0  0  0  0  0  0  0  0  0
   23.1141   13.7407   18.3502 C   0  0  0  0  0  0  0  0  0  0  0  0
   24.1663   15.8534   19.2309 C   0  0  0  0  0  0  0  0  0  0  0  0
   23.8280   16.8397   18.2148 C   0  0  0  0  0  0  0  0  0  0  0  0
   24.4891   16.8903   17.0163 C   0  0  0  0  0  0  0  0  0  0  0  0
   24.1621   17.8386   16.0395 C   0  0  0  0  0  0  0  0  0  0  0  0
   23.1524   18.7427   16.2874 C   0  0  0  0  0  0  0  0  0  0  0  0
   22.5017   18.6780   17.4910 C   0  0  0  0  0  0  0  0  0  0  0  0
   22.8261   17.7455   18.4467 C   0  0  0  0  0  0  0  0  0  0  0  0
   22.7753   19.7784   15.2544 C   0  0  1  0  0  0  0  0  0  0  0  0
   21.4075   20.2803   15.6379 C   0  0  0  0  0  0  0  0  0  0  0  0
   23.7933   20.8150   15.1902 C   0  0  0  0  0  0  0  0  0  0  0  0
   24.2844   21.4041   16.3374 O   0  0  0  0  0  0  0  0  0  0  0  0
   24.2426   21.1912   14.0855 O   0  0  0  0  0  0  0  0  0  0  0  0
  2  1  1  1
  3  2  1  1
  2  4  1  0
  4  5  1  1
  5  6  2  0
  6  7  1  0
  7  8  2  0
  8  9  1  0
  9 10  2  0
  8 11  1  0
 12 11  1  1
 11 13  1  1
 13 14  1  0
 13 15  2  0
 10  5  1  0
M  END
$$$$
