
     RDKit          3D

 15 15  0  0  0  0  0  0  0  0999 V2000
   21.7631   16.9406   18.3739 C   0  0  0  0  0  0  0  0  0  0  0  0
   23.2328   17.3117   18.3556 C   0  0  1  0  0  0  0  0  0  0  0  0
   23.6636   17.5837   19.7438 C   0  0  0  0  0  0  0  0  0  0  0  0
   24.0181   16.2963   17.6076 C   0  0  0  0  0  0  0  0  0  0  0  0
   24.8798   16.8122   16.5535 C   0  0  0  0  0  0  0  0  0  0  0  0
   26.0989   16.2490   16.2842 C   0  0  0  0  0  0  0  0  0  0  0  0
   26.9263   16.7454   15.2695 C   0  0  0  0  0  0  0  0  0  0  0  0
   26.5063   17.8250   14.5235 C   0  0  0  0  0  0  0  0  0  0  0  0
   25.2845   18.3758   14.8061 C   0  0  0  0  0  0  0  0  0  0  0  0
   24.4759   17.8853   15.8029 C   0  0  0  0  0  0  0  0  0  0  0  0
   27.3753   18.3844   13.4217 C   0  0  1  0  0  0  0  0  0  0  0  0
   26.4383   18.8365   12.3319 C   0  0  0  0  0  0  0  0  0  0  0  0
   28.2314   19.4371   13.9452 C   0  0  0  0  0  0  0  0  0  0  0  0
   29.5855   19.2351   14.1178 O   0  0  0  0  0  0  0  0  0  0  0  0
   27.7494   20.5502   14.2492 O   0  0  0  0  0  0  0  0  0  0  0  0
  2  1  1  1
  3  2  1  1
  2  4  1  0
  4  5  1  1
  5  6  2  0
  6  7  1  0
  7  8  2  0
  8  9  1  0
  9 10  2  0
  8 11  1  0
 12 11  1  1
 11 13  1  1
 13 14  1  0
 13 15  2  0
 10  5  1  0
M  END
$$$$
