
     RDKit          3D

 15 15  0  0  0  0  0  0  0  0999 V2000
   24.4220   11.2305   19.6676 C   0  0  0  0  0  0  0  0  0  0  0  0
   24.1538   12.4067   18.7496 C   0  0  1  0  0  0  0  0  0  0  0  0
   22.6981   12.4831   18.5010 C   0  0  0  0  0  0  0  0  0  0  0  0
   24.7992   13.6370   19.2758 C   0  0  0  0  0  0  0  0  0  0  0  0
   24.4045   14.8833   18.6348 C   0  0  0  0  0  0  0  0  0  0  0  0
   24.7839   15.1820   17.3531 C   0  0  0  0  0  0  0  0  0  0  0  0
   24.4028   16.3805   16.7375 C   0  0  0  0  0  0  0  0  0  0  0  0
   23.6283   17.2815   17.4353 C   0  0  0  0  0  0  0  0  0  0  0  0
   23.2579   16.9668   18.7158 C   0  0  0  0  0  0  0  0  0  0  0  0
   23.6343   15.7894   19.3160 C   0  0  0  0  0  0  0  0  0  0  0  0
   23.2004   18.5834   16.7997 C   0  0  1  0  0  0  0  0  0  0  0  0
   24.0239   19.6634   17.4516 C   0  0  0  0  0  0  0  0  0  0  0  0
   23.3526   18.5089   15.3553 C   0  0  0  0  0  0  0  0  0  0  0  0
   24.6018   18.5050   14.7691 O   0  0  0  0  0  0  0  0  0  0  0  0
   22.3454   18.4468   14.6167 O   0  0  0  0  0  0  0  0  0  0  0  0
  2  1  1  1
  3  2  1  1
  2  4  1  0
  4  5  1  1
  5  6  2  0
  6  7  1  0
  7  8  2  0
  8  9  1  0
  9 10  2  0
  8 11  1  0
 12 11  1  1
 11 13  1  6
 13 14  1  0
 13 15  2  0
 10  5  1  0
M  END
$$$$
