
     RDKit          3D

 15 15  0  0  0  0  0  0  0  0999 V2000
   14.8518    0.1772   32.9582 C   0  0  0  0  0  0  0  0  0  0  0  0
   15.7202    0.3659   34.1862 C   0  0  1  0  0  0  0  0  0  0  0  0
   14.9772   -0.1298   35.3648 C   0  0  0  0  0  0  0  0  0  0  0  0
   17.0700   -0.2140   33.9650 C   0  0  0  0  0  0  0  0  0  0  0  0
   18.0347   -0.0000   35.0343 C   0  0  0  0  0  0  0  0  0  0  0  0
   18.9157   -0.9785   35.4116 C   0  0  0  0  0  0  0  0  0  0  0  0
   19.8436   -0.7712   36.4394 C   0  0  0  0  0  0  0  0  0  0  0  0
   19.8729    0.4443   37.0876 C   0  0  0  0  0  0  0  0  0  0  0  0
   18.9849    1.4115   36.6976 C   0  0  0  0  0  0  0  0  0  0  0  0
   18.0760    1.2036   35.6883 C   0  0  0  0  0  0  0  0  0  0  0  0
   20.8618    0.6999   38.2006 C   0  0  1  0  0  0  0  0  0  0  0  0
   22.2243    0.3958   37.6343 C   0  0  0  0  0  0  0  0  0  0  0  0
   20.7141    2.0581   38.6992 C   0  0  0  0  0  0  0  0  0  0  0  0
   19.6267    2.4215   39.4671 O   0  0  0  0  0  0  0  0  0  0  0  0
   21.5773    2.9242   38.4373 O   0  0  0  0  0  0  0  0  0  0  0  0
  2  1  1  6
  3  2  1  1
  2  4  1  0
  4  5  1  1
  5  6  2  0
  6  7  1  0
  7  8  2  0
  8  9  1  0
  9 10  2  0
  8 11  1  0
 12 11  1  1
 11 13  1  6
 13 14  1  0
 13 15  2  0
 10  5  1  0
M  END
$$$$
