
     RDKit          3D

 15 15  0  0  0  0  0  0  0  0999 V2000
   22.4870   12.5291   18.8450 C   0  0  0  0  0  0  0  0  0  0  0  0
   23.6473   13.4808   19.0590 C   0  0  1  0  0  0  0  0  0  0  0  0
   24.5968   12.8551   20.0043 C   0  0  0  0  0  0  0  0  0  0  0  0
   24.2075   13.9221   17.7557 C   0  0  0  0  0  0  0  0  0  0  0  0
   24.2179   15.3595   17.5245 C   0  0  0  0  0  0  0  0  0  0  0  0
   23.3562   16.1976   18.1810 C   0  0  0  0  0  0  0  0  0  0  0  0
   23.3678   17.5799   17.9585 C   0  0  0  0  0  0  0  0  0  0  0  0
   24.2659   18.1115   17.0589 C   0  0  0  0  0  0  0  0  0  0  0  0
   25.1203   17.2591   16.4113 C   0  0  0  0  0  0  0  0  0  0  0  0
   25.1053   15.9031   16.6328 C   0  0  0  0  0  0  0  0  0  0  0  0
   24.3040   19.5986   16.7963 C   0  0  1  0  0  0  0  0  0  0  0  0
   25.5938   19.8664   16.0651 C   0  0  0  0  0  0  0  0  0  0  0  0
   23.1123   20.0094   16.0709 C   0  0  0  0  0  0  0  0  0  0  0  0
   22.9210   19.6506   14.7523 O   0  0  0  0  0  0  0  0  0  0  0  0
   22.2358   20.6995   16.6359 O   0  0  0  0  0  0  0  0  0  0  0  0
  2  1  1  6
  3  2  1  1
  2  4  1  0
  4  5  1  1
  5  6  2  0
  6  7  1  0
  7  8  2  0
  8  9  1  0
  9 10  2  0
  8 11  1  0
 12 11  1  1
 11 13  1  6
 13 14  1  0
 13 15  2  0
 10  5  1  0
M  END
$$$$
