
     RDKit          3D

 15 15  0  0  0  0  0  0  0  0999 V2000
   25.0852   16.4798   19.8595 C   0  0  0  0  0  0  0  0  0  0  0  0
   25.1762   15.2932   18.9205 C   0  0  1  0  0  0  0  0  0  0  0  0
   25.1337   14.0545   19.7270 C   0  0  0  0  0  0  0  0  0  0  0  0
   24.1691   15.4088   17.8344 C   0  0  0  0  0  0  0  0  0  0  0  0
   24.1033   16.7006   17.1660 C   0  0  0  0  0  0  0  0  0  0  0  0
   23.0423   17.5478   17.3461 C   0  0  0  0  0  0  0  0  0  0  0  0
   22.9806   18.7903   16.7036 C   0  0  0  0  0  0  0  0  0  0  0  0
   24.0098   19.1715   15.8705 C   0  0  0  0  0  0  0  0  0  0  0  0
   25.0629   18.3121   15.7018 C   0  0  0  0  0  0  0  0  0  0  0  0
   25.1192   17.0937   16.3345 C   0  0  0  0  0  0  0  0  0  0  0  0
   23.9736   20.5054   15.1625 C   0  0  1  0  0  0  0  0  0  0  0  0
   25.2360   21.2276   15.5554 C   0  0  0  0  0  0  0  0  0  0  0  0
   23.8225   20.3074   13.7296 C   0  0  0  0  0  0  0  0  0  0  0  0
   24.8574   19.8077   12.9657 O   0  0  0  0  0  0  0  0  0  0  0  0
   22.7436   20.5893   13.1635 O   0  0  0  0  0  0  0  0  0  0  0  0
  2  1  1  1
  3  2  1  1
  2  4  1  0
  4  5  1  1
  5  6  2  0
  6  7  1  0
  7  8  2  0
  8  9  1  0
  9 10  2  0
  8 11  1  0
 12 11  1  1
 11 13  1  6
 13 14  1  0
 13 15  2  0
 10  5  1  0
M  END
$$$$
