
     RDKit          3D

 15 15  0  0  0  0  0  0  0  0999 V2000
   26.9899    6.3650   14.1492 C   0  0  0  0  0  0  0  0  0  0  0  0
   27.7581    7.4060   13.3592 C   0  0  1  0  0  0  0  0  0  0  0  0
   28.9612    7.7848   14.1312 C   0  0  0  0  0  0  0  0  0  0  0  0
   27.9866    6.9407   11.9669 C   0  0  0  0  0  0  0  0  0  0  0  0
   28.6524    7.8874   11.0836 C   0  0  0  0  0  0  0  0  0  0  0  0
   29.7193    7.5169   10.3088 C   0  0  0  0  0  0  0  0  0  0  0  0
   30.3581    8.4281    9.4589 C   0  0  0  0  0  0  0  0  0  0  0  0
   29.9046    9.7278    9.3991 C   0  0  0  0  0  0  0  0  0  0  0  0
   28.8366   10.0811   10.1805 C   0  0  0  0  0  0  0  0  0  0  0  0
   28.2128    9.1835   11.0131 C   0  0  0  0  0  0  0  0  0  0  0  0
   30.5717   10.7352    8.4924 C   0  0  1  0  0  0  0  0  0  0  0  0
   29.8680   10.6402    7.1637 C   0  0  0  0  0  0  0  0  0  0  0  0
   30.5280   12.0577    9.0959 C   0  0  0  0  0  0  0  0  0  0  0  0
   29.4172   12.8656    8.9634 O   0  0  0  0  0  0  0  0  0  0  0  0
   31.5044   12.4861    9.7493 O   0  0  0  0  0  0  0  0  0  0  0  0
  2  1  1  1
  3  2  1  1
  2  4  1  0
  4  5  1  1
  5  6  2  0
  6  7  1  0
  7  8  2  0
  8  9  1  0
  9 10  2  0
  8 11  1  0
 12 11  1  1
 11 13  1  1
 13 14  1  0
 13 15  2  0
 10  5  1  0
M  END
$$$$
