
     RDKit          3D

 15 15  0  0  0  0  0  0  0  0999 V2000
   25.9971   17.5064   21.4489 C   0  0  0  0  0  0  0  0  0  0  0  0
   26.5069   16.1319   21.0632 C   0  0  1  0  0  0  0  0  0  0  0  0
   27.5826   15.7514   22.0039 C   0  0  0  0  0  0  0  0  0  0  0  0
   25.3781   15.1753   20.9293 C   0  0  0  0  0  0  0  0  0  0  0  0
   24.4968   15.3905   19.7905 C   0  0  0  0  0  0  0  0  0  0  0  0
   24.8507   15.0002   18.5262 C   0  0  0  0  0  0  0  0  0  0  0  0
   24.0019   15.2068   17.4320 C   0  0  0  0  0  0  0  0  0  0  0  0
   22.7821   15.8164   17.6293 C   0  0  0  0  0  0  0  0  0  0  0  0
   22.4442   16.2002   18.9000 C   0  0  0  0  0  0  0  0  0  0  0  0
   23.2805   15.9955   19.9709 C   0  0  0  0  0  0  0  0  0  0  0  0
   21.8434   16.0538   16.4698 C   0  0  1  0  0  0  0  0  0  0  0  0
   20.5113   15.4817   16.8797 C   0  0  0  0  0  0  0  0  0  0  0  0
   21.8064   17.4692   16.1376 C   0  0  0  0  0  0  0  0  0  0  0  0
   21.3604   18.4042   17.0492 O   0  0  0  0  0  0  0  0  0  0  0  0
   22.1813   17.8634   15.0116 O   0  0  0  0  0  0  0  0  0  0  0  0
  2  1  1  1
  3  2  1  1
  2  4  1  0
  4  5  1  1
  5  6  2  0
  6  7  1  0
  7  8  2  0
  8  9  1  0
  9 10  2  0
  8 11  1  0
 12 11  1  1
 11 13  1  1
 13 14  1  0
 13 15  2  0
 10  5  1  0
M  END
$$$$
