
     RDKit          3D

 15 15  0  0  0  0  0  0  0  0999 V2000
   25.0309   14.5568   18.9667 C   0  0  0  0  0  0  0  0  0  0  0  0
   24.6705   15.4997   17.8359 C   0  0  1  0  0  0  0  0  0  0  0  0
   23.9044   14.7429   16.8225 C   0  0  0  0  0  0  0  0  0  0  0  0
   24.0277   16.7295   18.3668 C   0  0  0  0  0  0  0  0  0  0  0  0
   23.7436   17.7691   17.3879 C   0  0  0  0  0  0  0  0  0  0  0  0
   24.6789   18.1628   16.4681 C   0  0  0  0  0  0  0  0  0  0  0  0
   24.4041   19.1620   15.5265 C   0  0  0  0  0  0  0  0  0  0  0  0
   23.1649   19.7644   15.5234 C   0  0  0  0  0  0  0  0  0  0  0  0
   22.2415   19.3585   16.4501 C   0  0  0  0  0  0  0  0  0  0  0  0
   22.5157   18.3775   17.3723 C   0  0  0  0  0  0  0  0  0  0  0  0
   22.8368   20.8456   14.5208 C   0  0  1  0  0  0  0  0  0  0  0  0
   21.4872   20.4972   13.9489 C   0  0  0  0  0  0  0  0  0  0  0  0
   22.8944   22.1522   15.1569 C   0  0  0  0  0  0  0  0  0  0  0  0
   22.2782   22.3825   16.3699 O   0  0  0  0  0  0  0  0  0  0  0  0
   23.5082   23.0943   14.6097 O   0  0  0  0  0  0  0  0  0  0  0  0
  2  1  1  1
  3  2  1  1
  2  4  1  0
  4  5  1  1
  5  6  2  0
  6  7  1  0
  7  8  2  0
  8  9  1  0
  9 10  2  0
  8 11  1  0
 12 11  1  1
 11 13  1  1
 13 14  1  0
 13 15  2  0
 10  5  1  0
M  END
$$$$
