
     RDKit          3D

 15 15  0  0  0  0  0  0  0  0999 V2000
   24.9062   14.4701   19.8134 C   0  0  0  0  0  0  0  0  0  0  0  0
   24.6547   15.7720   19.0788 C   0  0  1  0  0  0  0  0  0  0  0  0
   25.4470   16.8371   19.7304 C   0  0  0  0  0  0  0  0  0  0  0  0
   24.8612   15.5953   17.6182 C   0  0  0  0  0  0  0  0  0  0  0  0
   24.6320   16.7764   16.7983 C   0  0  0  0  0  0  0  0  0  0  0  0
   25.5576   17.2057   15.8846 C   0  0  0  0  0  0  0  0  0  0  0  0
   25.3355   18.3411   15.0960 C   0  0  0  0  0  0  0  0  0  0  0  0
   24.1595   19.0444   15.2408 C   0  0  0  0  0  0  0  0  0  0  0  0
   23.2450   18.6012   16.1591 C   0  0  0  0  0  0  0  0  0  0  0  0
   23.4672   17.4863   16.9309 C   0  0  0  0  0  0  0  0  0  0  0  0
   23.8894   20.2735   14.4053 C   0  0  1  0  0  0  0  0  0  0  0  0
   22.6199   20.8805   14.9433 C   0  0  0  0  0  0  0  0  0  0  0  0
   25.0376   21.1655   14.4415 C   0  0  0  0  0  0  0  0  0  0  0  0
   25.4113   21.7996   15.6087 O   0  0  0  0  0  0  0  0  0  0  0  0
   25.7088   21.3730   13.4070 O   0  0  0  0  0  0  0  0  0  0  0  0
  2  1  1  1
  3  2  1  1
  2  4  1  0
  4  5  1  1
  5  6  2  0
  6  7  1  0
  7  8  2  0
  8  9  1  0
  9 10  2  0
  8 11  1  0
 12 11  1  1
 11 13  1  1
 13 14  1  0
 13 15  2  0
 10  5  1  0
M  END
$$$$
