
     RDKit          3D

 15 15  0  0  0  0  0  0  0  0999 V2000
   27.2556    5.8778   12.8391 C   0  0  0  0  0  0  0  0  0  0  0  0
   27.3049    7.1978   13.5829 C   0  0  1  0  0  0  0  0  0  0  0  0
   26.8690    6.9655   14.9767 C   0  0  0  0  0  0  0  0  0  0  0  0
   28.6288    7.8480   13.4048 C   0  0  0  0  0  0  0  0  0  0  0  0
   28.8550    8.4818   12.1137 C   0  0  0  0  0  0  0  0  0  0  0  0
   29.7735    7.9900   11.2246 C   0  0  0  0  0  0  0  0  0  0  0  0
   29.9894    8.5998    9.9829 C   0  0  0  0  0  0  0  0  0  0  0  0
   29.2624    9.7205    9.6455 C   0  0  0  0  0  0  0  0  0  0  0  0
   28.3482   10.1988   10.5463 C   0  0  0  0  0  0  0  0  0  0  0  0
   28.1396    9.5971   11.7639 C   0  0  0  0  0  0  0  0  0  0  0  0
   29.4715   10.4019    8.3136 C   0  0  1  0  0  0  0  0  0  0  0  0
   28.1060   10.8181    7.8321 C   0  0  0  0  0  0  0  0  0  0  0  0
   30.4130   11.5012    8.4562 C   0  0  0  0  0  0  0  0  0  0  0  0
   30.2270   12.4800    9.4110 O   0  0  0  0  0  0  0  0  0  0  0  0
   31.4134   11.5765    7.7097 O   0  0  0  0  0  0  0  0  0  0  0  0
  2  1  1  6
  3  2  1  1
  2  4  1  0
  4  5  1  1
  5  6  2  0
  6  7  1  0
  7  8  2  0
  8  9  1  0
  9 10  2  0
  8 11  1  0
 12 11  1  1
 11 13  1  1
 13 14  1  0
 13 15  2  0
 10  5  1  0
M  END
$$$$
