
     RDKit          3D

 15 15  0  0  0  0  0  0  0  0999 V2000
   23.7381   13.4677   19.5300 C   0  0  0  0  0  0  0  0  0  0  0  0
   25.1555   13.9521   19.2974 C   0  0  1  0  0  0  0  0  0  0  0  0
   26.0890   12.8840   19.7150 C   0  0  0  0  0  0  0  0  0  0  0  0
   25.3121   14.4606   17.9102 C   0  0  0  0  0  0  0  0  0  0  0  0
   24.5500   15.6575   17.5843 C   0  0  0  0  0  0  0  0  0  0  0  0
   23.8061   16.3134   18.5290 C   0  0  0  0  0  0  0  0  0  0  0  0
   23.0744   17.4650   18.2145 C   0  0  0  0  0  0  0  0  0  0  0  0
   23.1019   17.9514   16.9257 C   0  0  0  0  0  0  0  0  0  0  0  0
   23.8508   17.2832   15.9936 C   0  0  0  0  0  0  0  0  0  0  0  0
   24.5673   16.1534   16.3068 C   0  0  0  0  0  0  0  0  0  0  0  0
   22.3235   19.1915   16.5539 C   0  0  1  0  0  0  0  0  0  0  0  0
   21.9724   19.8752   17.8497 C   0  0  0  0  0  0  0  0  0  0  0  0
   23.0991   20.0134   15.6384 C   0  0  0  0  0  0  0  0  0  0  0  0
   24.3024   20.5685   16.0233 O   0  0  0  0  0  0  0  0  0  0  0  0
   22.6838   20.2312   14.4791 O   0  0  0  0  0  0  0  0  0  0  0  0
  2  1  1  6
  3  2  1  1
  2  4  1  0
  4  5  1  1
  5  6  2  0
  6  7  1  0
  7  8  2  0
  8  9  1  0
  9 10  2  0
  8 11  1  0
 12 11  1  1
 11 13  1  6
 13 14  1  0
 13 15  2  0
 10  5  1  0
M  END
$$$$
