
     RDKit          3D

 15 15  0  0  0  0  0  0  0  0999 V2000
   25.0802   14.2107   20.2552 C   0  0  0  0  0  0  0  0  0  0  0  0
   24.5889   15.5446   19.7287 C   0  0  1  0  0  0  0  0  0  0  0  0
   25.4965   16.6038   20.2196 C   0  0  0  0  0  0  0  0  0  0  0  0
   24.3822   15.4813   18.2589 C   0  0  0  0  0  0  0  0  0  0  0  0
   23.0448   15.8179   17.7920 C   0  0  0  0  0  0  0  0  0  0  0  0
   22.6907   15.6864   16.4754 C   0  0  0  0  0  0  0  0  0  0  0  0
   21.4040   16.0096   16.0278 C   0  0  0  0  0  0  0  0  0  0  0  0
   20.4710   16.4706   16.9307 C   0  0  0  0  0  0  0  0  0  0  0  0
   20.8419   16.5961   18.2433 C   0  0  0  0  0  0  0  0  0  0  0  0
   22.1059   16.2777   18.6780 C   0  0  0  0  0  0  0  0  0  0  0  0
   19.0742   16.8279   16.4800 C   0  0  1  0  0  0  0  0  0  0  0  0
   18.1704   16.5701   17.6574 C   0  0  0  0  0  0  0  0  0  0  0  0
   19.0406   18.1978   15.9927 C   0  0  0  0  0  0  0  0  0  0  0  0
   19.4803   18.5142   14.7235 O   0  0  0  0  0  0  0  0  0  0  0  0
   18.6092   19.1172   16.7225 O   0  0  0  0  0  0  0  0  0  0  0  0
  2  1  1  6
  3  2  1  1
  2  4  1  0
  4  5  1  1
  5  6  2  0
  6  7  1  0
  7  8  2  0
  8  9  1  0
  9 10  2  0
  8 11  1  0
 12 11  1  1
 11 13  1  1
 13 14  1  0
 13 15  2  0
 10  5  1  0
M  END
$$$$
