
     RDKit          3D

 15 15  0  0  0  0  0  0  0  0999 V2000
   29.3003    7.8140   13.7311 C   0  0  0  0  0  0  0  0  0  0  0  0
   30.0796    6.9046   12.8019 C   0  0  1  0  0  0  0  0  0  0  0  0
   30.3397    5.6299   13.5050 C   0  0  0  0  0  0  0  0  0  0  0  0
   29.4047    6.8048   11.4822 C   0  0  0  0  0  0  0  0  0  0  0  0
   29.6144    7.9256   10.5768 C   0  0  0  0  0  0  0  0  0  0  0  0
   28.6239    8.8365   10.3219 C   0  0  0  0  0  0  0  0  0  0  0  0
   28.8271    9.9146    9.4518 C   0  0  0  0  0  0  0  0  0  0  0  0
   30.0509   10.0644    8.8369 C   0  0  0  0  0  0  0  0  0  0  0  0
   31.0302    9.1445    9.1031 C   0  0  0  0  0  0  0  0  0  0  0  0
   30.8262    8.0880    9.9577 C   0  0  0  0  0  0  0  0  0  0  0  0
   30.3024   11.2166    7.8928 C   0  0  1  0  0  0  0  0  0  0  0  0
   29.2778   11.0956    6.7949 C   0  0  0  0  0  0  0  0  0  0  0  0
   30.2529   12.4769    8.6169 C   0  0  0  0  0  0  0  0  0  0  0  0
   29.0753   12.9347    9.1717 O   0  0  0  0  0  0  0  0  0  0  0  0
   31.2852   13.1703    8.7488 O   0  0  0  0  0  0  0  0  0  0  0  0
  2  1  1  1
  3  2  1  1
  2  4  1  0
  4  5  1  1
  5  6  2  0
  6  7  1  0
  7  8  2  0
  8  9  1  0
  9 10  2  0
  8 11  1  0
 12 11  1  1
 11 13  1  1
 13 14  1  0
 13 15  2  0
 10  5  1  0
M  END
$$$$
