
     RDKit          3D

 15 15  0  0  0  0  0  0  0  0999 V2000
   24.6214   16.3238   20.1402 C   0  0  0  0  0  0  0  0  0  0  0  0
   25.0266   15.4513   18.9687 C   0  0  1  0  0  0  0  0  0  0  0  0
   25.2358   14.0732   19.4626 C   0  0  0  0  0  0  0  0  0  0  0  0
   24.0697   15.6111   17.8435 C   0  0  0  0  0  0  0  0  0  0  0  0
   24.3287   16.7273   16.9451 C   0  0  0  0  0  0  0  0  0  0  0  0
   25.4725   16.7932   16.1947 C   0  0  0  0  0  0  0  0  0  0  0  0
   25.7200   17.8665   15.3303 C   0  0  0  0  0  0  0  0  0  0  0  0
   24.7928   18.8809   15.2308 C   0  0  0  0  0  0  0  0  0  0  0  0
   23.6546   18.7990   15.9884 C   0  0  0  0  0  0  0  0  0  0  0  0
   23.4160   17.7436   16.8353 C   0  0  0  0  0  0  0  0  0  0  0  0
   25.0297   20.0529   14.3076 C   0  0  1  0  0  0  0  0  0  0  0  0
   23.7149   20.7806   14.2014 C   0  0  0  0  0  0  0  0  0  0  0  0
   26.1238   20.8704   14.8074 C   0  0  0  0  0  0  0  0  0  0  0  0
   26.0987   21.3916   16.0849 O   0  0  0  0  0  0  0  0  0  0  0  0
   27.1118   21.1154   14.0810 O   0  0  0  0  0  0  0  0  0  0  0  0
  2  1  1  1
  3  2  1  1
  2  4  1  0
  4  5  1  1
  5  6  2  0
  6  7  1  0
  7  8  2  0
  8  9  1  0
  9 10  2  0
  8 11  1  0
 12 11  1  1
 11 13  1  1
 13 14  1  0
 13 15  2  0
 10  5  1  0
M  END
$$$$
