
     RDKit          3D

 15 15  0  0  0  0  0  0  0  0999 V2000
   19.7700   16.3049   16.1661 C   0  0  0  0  0  0  0  0  0  0  0  0
   20.4053   17.2187   17.1953 C   0  0  1  0  0  0  0  0  0  0  0  0
   19.3327   17.7926   18.0362 C   0  0  0  0  0  0  0  0  0  0  0  0
   21.5009   16.5159   17.9115 C   0  0  0  0  0  0  0  0  0  0  0  0
   22.8520   16.8373   17.4743 C   0  0  0  0  0  0  0  0  0  0  0  0
   23.2403   18.1289   17.2358 C   0  0  0  0  0  0  0  0  0  0  0  0
   24.5402   18.4368   16.8164 C   0  0  0  0  0  0  0  0  0  0  0  0
   25.4514   17.4186   16.6389 C   0  0  0  0  0  0  0  0  0  0  0  0
   25.0463   16.1329   16.8820 C   0  0  0  0  0  0  0  0  0  0  0  0
   23.7695   15.8355   17.2935 C   0  0  0  0  0  0  0  0  0  0  0  0
   26.8616   17.7172   16.1873 C   0  0  1  0  0  0  0  0  0  0  0  0
   27.4690   16.3958   15.7941 C   0  0  0  0  0  0  0  0  0  0  0  0
   26.8467   18.7062   15.1211 C   0  0  0  0  0  0  0  0  0  0  0  0
   26.5024   18.3586   13.8308 O   0  0  0  0  0  0  0  0  0  0  0  0
   27.1483   19.8962   15.3595 O   0  0  0  0  0  0  0  0  0  0  0  0
  2  1  1  6
  3  2  1  1
  2  4  1  0
  4  5  1  1
  5  6  2  0
  6  7  1  0
  7  8  2  0
  8  9  1  0
  9 10  2  0
  8 11  1  0
 12 11  1  1
 11 13  1  6
 13 14  1  0
 13 15  2  0
 10  5  1  0
M  END
$$$$
