
     RDKit          3D

 15 15  0  0  0  0  0  0  0  0999 V2000
   24.1979   15.3344   17.0029 C   0  0  0  0  0  0  0  0  0  0  0  0
   24.3877   16.8095   17.2960 C   0  0  1  0  0  0  0  0  0  0  0  0
   23.4991   17.1813   18.4180 C   0  0  0  0  0  0  0  0  0  0  0  0
   25.8295   17.1271   17.4626 C   0  0  0  0  0  0  0  0  0  0  0  0
   26.4743   17.7623   16.3221 C   0  0  0  0  0  0  0  0  0  0  0  0
   26.2474   19.0765   16.0104 C   0  0  0  0  0  0  0  0  0  0  0  0
   26.8689   19.6865   14.9140 C   0  0  0  0  0  0  0  0  0  0  0  0
   27.7289   18.9496   14.1292 C   0  0  0  0  0  0  0  0  0  0  0  0
   27.9444   17.6368   14.4553 C   0  0  0  0  0  0  0  0  0  0  0  0
   27.3322   17.0424   15.5323 C   0  0  0  0  0  0  0  0  0  0  0  0
   28.4153   19.5780   12.9393 C   0  0  1  0  0  0  0  0  0  0  0  0
   28.4327   18.5290   11.8581 C   0  0  0  0  0  0  0  0  0  0  0  0
   27.7381   20.8090   12.5635 C   0  0  0  0  0  0  0  0  0  0  0  0
   26.5305   20.7834   11.8962 O   0  0  0  0  0  0  0  0  0  0  0  0
   28.2441   21.9182   12.8417 O   0  0  0  0  0  0  0  0  0  0  0  0
  2  1  1  1
  3  2  1  1
  2  4  1  0
  4  5  1  1
  5  6  2  0
  6  7  1  0
  7  8  2  0
  8  9  1  0
  9 10  2  0
  8 11  1  0
 12 11  1  1
 11 13  1  6
 13 14  1  0
 13 15  2  0
 10  5  1  0
M  END
$$$$
