
     RDKit          3D

 15 15  0  0  0  0  0  0  0  0999 V2000
   25.4924   14.7499   22.7015 C   0  0  0  0  0  0  0  0  0  0  0  0
   26.2870   15.4414   21.6113 C   0  0  1  0  0  0  0  0  0  0  0  0
   27.7261   15.2992   21.9202 C   0  0  0  0  0  0  0  0  0  0  0  0
   25.8502   14.9736   20.2706 C   0  0  0  0  0  0  0  0  0  0  0  0
   24.9212   15.8462   19.5666 C   0  0  0  0  0  0  0  0  0  0  0  0
   24.0191   16.6259   20.2406 C   0  0  0  0  0  0  0  0  0  0  0  0
   23.1270   17.4654   19.5625 C   0  0  0  0  0  0  0  0  0  0  0  0
   23.1555   17.5097   18.1856 C   0  0  0  0  0  0  0  0  0  0  0  0
   24.0639   16.7236   17.5278 C   0  0  0  0  0  0  0  0  0  0  0  0
   24.9376   15.9012   18.1974 C   0  0  0  0  0  0  0  0  0  0  0  0
   22.2064   18.4049   17.4242 C   0  0  1  0  0  0  0  0  0  0  0  0
   22.1834   19.7199   18.1590 C   0  0  0  0  0  0  0  0  0  0  0  0
   22.6214   18.5070   16.0341 C   0  0  0  0  0  0  0  0  0  0  0  0
   23.6087   19.3904   15.6478 O   0  0  0  0  0  0  0  0  0  0  0  0
   22.0855   17.7900   15.1608 O   0  0  0  0  0  0  0  0  0  0  0  0
  2  1  1  1
  3  2  1  1
  2  4  1  0
  4  5  1  1
  5  6  2  0
  6  7  1  0
  7  8  2  0
  8  9  1  0
  9 10  2  0
  8 11  1  0
 12 11  1  1
 11 13  1  6
 13 14  1  0
 13 15  2  0
 10  5  1  0
M  END
$$$$
