
     RDKit          3D

 15 15  0  0  0  0  0  0  0  0999 V2000
   26.1385   19.2358   23.4302 C   0  0  0  0  0  0  0  0  0  0  0  0
   27.0742   18.0651   23.2030 C   0  0  1  0  0  0  0  0  0  0  0  0
   28.0783   18.0518   24.2886 C   0  0  0  0  0  0  0  0  0  0  0  0
   26.3025   16.8116   23.0022 C   0  0  0  0  0  0  0  0  0  0  0  0
   25.6921   16.6465   21.6908 C   0  0  0  0  0  0  0  0  0  0  0  0
   24.5310   17.2903   21.3540 C   0  0  0  0  0  0  0  0  0  0  0  0
   23.9455   17.1315   20.0921 C   0  0  0  0  0  0  0  0  0  0  0  0
   24.5495   16.3090   19.1662 C   0  0  0  0  0  0  0  0  0  0  0  0
   25.7100   15.6730   19.5196 C   0  0  0  0  0  0  0  0  0  0  0  0
   26.2810   15.8319   20.7593 C   0  0  0  0  0  0  0  0  0  0  0  0
   23.9434   16.1164   17.7961 C   0  0  1  0  0  0  0  0  0  0  0  0
   22.6181   16.8325   17.8150 C   0  0  0  0  0  0  0  0  0  0  0  0
   24.8611   16.5896   16.7718 C   0  0  0  0  0  0  0  0  0  0  0  0
   25.5913   15.7049   16.0049 O   0  0  0  0  0  0  0  0  0  0  0  0
   25.0033   17.8154   16.5691 O   0  0  0  0  0  0  0  0  0  0  0  0
  2  1  1  1
  3  2  1  1
  2  4  1  0
  4  5  1  1
  5  6  2  0
  6  7  1  0
  7  8  2  0
  8  9  1  0
  9 10  2  0
  8 11  1  0
 12 11  1  1
 11 13  1  6
 13 14  1  0
 13 15  2  0
 10  5  1  0
M  END
$$$$
