
     RDKit          3D

 15 15  0  0  0  0  0  0  0  0999 V2000
   31.3664    4.7012   13.2680 C   0  0  0  0  0  0  0  0  0  0  0  0
   31.3074    6.0221   12.5266 C   0  0  1  0  0  0  0  0  0  0  0  0
   32.6909    6.4669   12.2534 C   0  0  0  0  0  0  0  0  0  0  0  0
   30.4023    5.9216   11.3528 C   0  0  0  0  0  0  0  0  0  0  0  0
   30.1657    7.1615   10.6271 C   0  0  0  0  0  0  0  0  0  0  0  0
   30.7581    7.4083    9.4171 C   0  0  0  0  0  0  0  0  0  0  0  0
   30.5290    8.6006    8.7197 C   0  0  0  0  0  0  0  0  0  0  0  0
   29.6888    9.5488    9.2612 C   0  0  0  0  0  0  0  0  0  0  0  0
   29.1048    9.2857   10.4719 C   0  0  0  0  0  0  0  0  0  0  0  0
   29.3325    8.1141   11.1528 C   0  0  0  0  0  0  0  0  0  0  0  0
   29.4208   10.8456    8.5341 C   0  0  1  0  0  0  0  0  0  0  0  0
   27.9750   10.8037    8.1128 C   0  0  0  0  0  0  0  0  0  0  0  0
   29.7605   11.9755    9.3844 C   0  0  0  0  0  0  0  0  0  0  0  0
   30.9809   12.6100    9.2733 O   0  0  0  0  0  0  0  0  0  0  0  0
   28.9451   12.3925   10.2360 O   0  0  0  0  0  0  0  0  0  0  0  0
  2  1  1  6
  3  2  1  1
  2  4  1  0
  4  5  1  1
  5  6  2  0
  6  7  1  0
  7  8  2  0
  8  9  1  0
  9 10  2  0
  8 11  1  0
 12 11  1  1
 11 13  1  1
 13 14  1  0
 13 15  2  0
 10  5  1  0
M  END
$$$$
