
     RDKit          3D

 15 15  0  0  0  0  0  0  0  0999 V2000
   24.9624   16.4131   19.5595 C   0  0  0  0  0  0  0  0  0  0  0  0
   25.3553   15.3107   18.5960 C   0  0  1  0  0  0  0  0  0  0  0  0
   25.2774   14.0174   19.3087 C   0  0  0  0  0  0  0  0  0  0  0  0
   24.5769   15.4177   17.3352 C   0  0  0  0  0  0  0  0  0  0  0  0
   24.6019   16.7194   16.6835 C   0  0  0  0  0  0  0  0  0  0  0  0
   25.6897   17.1413   15.9661 C   0  0  0  0  0  0  0  0  0  0  0  0
   25.7123   18.3930   15.3390 C   0  0  0  0  0  0  0  0  0  0  0  0
   24.6160   19.2209   15.4446 C   0  0  0  0  0  0  0  0  0  0  0  0
   23.5369   18.7833   16.1657 C   0  0  0  0  0  0  0  0  0  0  0  0
   23.5192   17.5540   16.7795 C   0  0  0  0  0  0  0  0  0  0  0  0
   24.6086   20.5774   14.7799 C   0  0  1  0  0  0  0  0  0  0  0  0
   25.9889   21.1500   14.9711 C   0  0  0  0  0  0  0  0  0  0  0  0
   24.2042   20.4507   13.3887 C   0  0  0  0  0  0  0  0  0  0  0  0
   22.9480   20.8421   12.9728 O   0  0  0  0  0  0  0  0  0  0  0  0
   24.9952   19.9814   12.5414 O   0  0  0  0  0  0  0  0  0  0  0  0
  2  1  1  1
  3  2  1  1
  2  4  1  0
  4  5  1  1
  5  6  2  0
  6  7  1  0
  7  8  2  0
  8  9  1  0
  9 10  2  0
  8 11  1  0
 12 11  1  1
 11 13  1  6
 13 14  1  0
 13 15  2  0
 10  5  1  0
M  END
$$$$
