
     RDKit          3D

 15 15  0  0  0  0  0  0  0  0999 V2000
   19.2037   -6.4308   36.8077 C   0  0  0  0  0  0  0  0  0  0  0  0
   18.8813   -5.0230   37.2681 C   0  0  1  0  0  0  0  0  0  0  0  0
   18.9399   -4.9894   38.7454 C   0  0  0  0  0  0  0  0  0  0  0  0
   19.7259   -4.0332   36.5512 C   0  0  0  0  0  0  0  0  0  0  0  0
   19.2703   -2.6515   36.6088 C   0  0  0  0  0  0  0  0  0  0  0  0
   19.6084   -1.8278   37.6496 C   0  0  0  0  0  0  0  0  0  0  0  0
   19.1704   -0.4990   37.7034 C   0  0  0  0  0  0  0  0  0  0  0  0
   18.3811   -0.0066   36.6870 C   0  0  0  0  0  0  0  0  0  0  0  0
   18.0526   -0.8439   35.6540 C   0  0  0  0  0  0  0  0  0  0  0  0
   18.4848   -2.1474   35.6055 C   0  0  0  0  0  0  0  0  0  0  0  0
   17.8922    1.4224   36.7151 C   0  0  1  0  0  0  0  0  0  0  0  0
   16.3933    1.3598   36.5772 C   0  0  0  0  0  0  0  0  0  0  0  0
   18.3513    2.0847   37.9258 C   0  0  0  0  0  0  0  0  0  0  0  0
   17.8207    1.7645   39.1587 O   0  0  0  0  0  0  0  0  0  0  0  0
   19.2412    2.9614   37.8673 O   0  0  0  0  0  0  0  0  0  0  0  0
  2  1  1  6
  3  2  1  1
  2  4  1  0
  4  5  1  1
  5  6  2  0
  6  7  1  0
  7  8  2  0
  8  9  1  0
  9 10  2  0
  8 11  1  0
 12 11  1  1
 11 13  1  1
 13 14  1  0
 13 15  2  0
 10  5  1  0
M  END
$$$$
