
     RDKit          3D

 15 15  0  0  0  0  0  0  0  0999 V2000
   25.1735   14.6398   19.0173 C   0  0  0  0  0  0  0  0  0  0  0  0
   24.9604   15.5280   17.8075 C   0  0  1  0  0  0  0  0  0  0  0  0
   24.5157   14.6821   16.6791 C   0  0  0  0  0  0  0  0  0  0  0  0
   24.0879   16.6798   18.1530 C   0  0  0  0  0  0  0  0  0  0  0  0
   23.9003   17.6702   17.1024 C   0  0  0  0  0  0  0  0  0  0  0  0
   22.6759   18.2336   16.8584 C   0  0  0  0  0  0  0  0  0  0  0  0
   22.4970   19.1867   15.8485 C   0  0  0  0  0  0  0  0  0  0  0  0
   23.5760   19.5681   15.0812 C   0  0  0  0  0  0  0  0  0  0  0  0
   24.7930   18.9947   15.3387 C   0  0  0  0  0  0  0  0  0  0  0  0
   24.9639   18.0597   16.3310 C   0  0  0  0  0  0  0  0  0  0  0  0
   23.4164   20.5938   13.9838 C   0  0  1  0  0  0  0  0  0  0  0  0
   21.9388   20.6894   13.7054 C   0  0  0  0  0  0  0  0  0  0  0  0
   24.0298   21.8512   14.3810 C   0  0  0  0  0  0  0  0  0  0  0  0
   23.6352   22.5055   15.5301 O   0  0  0  0  0  0  0  0  0  0  0  0
   24.9314   22.3626   13.6815 O   0  0  0  0  0  0  0  0  0  0  0  0
  2  1  1  1
  3  2  1  1
  2  4  1  0
  4  5  1  1
  5  6  2  0
  6  7  1  0
  7  8  2  0
  8  9  1  0
  9 10  2  0
  8 11  1  0
 12 11  1  1
 11 13  1  1
 13 14  1  0
 13 15  2  0
 10  5  1  0
M  END
$$$$
