
     RDKit          3D

 15 15  0  0  0  0  0  0  0  0999 V2000
   34.0774    3.6857   11.1667 C   0  0  0  0  0  0  0  0  0  0  0  0
   32.9944    4.5020   10.4895 C   0  0  1  0  0  0  0  0  0  0  0  0
   33.0858    4.2806    9.0303 C   0  0  0  0  0  0  0  0  0  0  0  0
   31.6734    4.2380   11.1159 C   0  0  0  0  0  0  0  0  0  0  0  0
   30.8098    5.3978   11.2863 C   0  0  0  0  0  0  0  0  0  0  0  0
   30.5505    6.2569   10.2516 C   0  0  0  0  0  0  0  0  0  0  0  0
   29.7191    7.3714   10.4165 C   0  0  0  0  0  0  0  0  0  0  0  0
   29.1475    7.6112   11.6471 C   0  0  0  0  0  0  0  0  0  0  0  0
   29.4174    6.7420   12.6706 C   0  0  0  0  0  0  0  0  0  0  0  0
   30.2341    5.6495   12.5042 C   0  0  0  0  0  0  0  0  0  0  0  0
   28.2458    8.8047   11.8578 C   0  0  1  0  0  0  0  0  0  0  0  0
   28.2625    9.0918   13.3367 C   0  0  0  0  0  0  0  0  0  0  0  0
   28.6861    9.9168   11.0306 C   0  0  0  0  0  0  0  0  0  0  0  0
   27.9985   10.2714    9.8879 O   0  0  0  0  0  0  0  0  0  0  0  0
   29.7026   10.5738   11.3448 O   0  0  0  0  0  0  0  0  0  0  0  0
  2  1  1  1
  3  2  1  1
  2  4  1  0
  4  5  1  1
  5  6  2  0
  6  7  1  0
  7  8  2  0
  8  9  1  0
  9 10  2  0
  8 11  1  0
 12 11  1  1
 11 13  1  6
 13 14  1  0
 13 15  2  0
 10  5  1  0
M  END
$$$$
