
     RDKit          3D

 15 15  0  0  0  0  0  0  0  0999 V2000
   23.0183   15.8139   18.2920 C   0  0  0  0  0  0  0  0  0  0  0  0
   24.4209   16.3721   18.1537 C   0  0  1  0  0  0  0  0  0  0  0  0
   25.2858   15.7172   19.1587 C   0  0  0  0  0  0  0  0  0  0  0  0
   24.8758   16.2964   16.7415 C   0  0  0  0  0  0  0  0  0  0  0  0
   24.6088   17.4726   15.9258 C   0  0  0  0  0  0  0  0  0  0  0  0
   23.4461   18.1850   16.0539 C   0  0  0  0  0  0  0  0  0  0  0  0
   23.1909   19.3165   15.2696 C   0  0  0  0  0  0  0  0  0  0  0  0
   24.1297   19.7245   14.3472 C   0  0  0  0  0  0  0  0  0  0  0  0
   25.2868   19.0005   14.2324 C   0  0  0  0  0  0  0  0  0  0  0  0
   25.5329   17.8906   15.0042 C   0  0  0  0  0  0  0  0  0  0  0  0
   23.8849   20.9409   13.4858 C   0  0  1  0  0  0  0  0  0  0  0  0
   22.3979   21.0018   13.2520 C   0  0  0  0  0  0  0  0  0  0  0  0
   24.4360   22.1256   14.1245 C   0  0  0  0  0  0  0  0  0  0  0  0
   23.8031   22.7160   15.1993 O   0  0  0  0  0  0  0  0  0  0  0  0
   25.5005   22.6312   13.7060 O   0  0  0  0  0  0  0  0  0  0  0  0
  2  1  1  6
  3  2  1  1
  2  4  1  0
  4  5  1  1
  5  6  2  0
  6  7  1  0
  7  8  2  0
  8  9  1  0
  9 10  2  0
  8 11  1  0
 12 11  1  1
 11 13  1  1
 13 14  1  0
 13 15  2  0
 10  5  1  0
M  END
$$$$
