
     RDKit          3D

 15 15  0  0  0  0  0  0  0  0999 V2000
   25.9557   14.1750   19.2182 C   0  0  0  0  0  0  0  0  0  0  0  0
   24.5154   14.3733   18.7889 C   0  0  1  0  0  0  0  0  0  0  0  0
   23.6506   13.5464   19.6579 C   0  0  0  0  0  0  0  0  0  0  0  0
   24.1872   15.8204   18.7159 C   0  0  0  0  0  0  0  0  0  0  0  0
   22.8329   16.1423   18.2892 C   0  0  0  0  0  0  0  0  0  0  0  0
   21.8543   16.4646   19.1916 C   0  0  0  0  0  0  0  0  0  0  0  0
   20.5525   16.7750   18.7799 C   0  0  0  0  0  0  0  0  0  0  0  0
   20.2467   16.7562   17.4365 C   0  0  0  0  0  0  0  0  0  0  0  0
   21.2372   16.4318   16.5479 C   0  0  0  0  0  0  0  0  0  0  0  0
   22.5134   16.1279   16.9566 C   0  0  0  0  0  0  0  0  0  0  0  0
   18.8518   17.0861   16.9597 C   0  0  1  0  0  0  0  0  0  0  0  0
   17.9582   16.9946   18.1692 C   0  0  0  0  0  0  0  0  0  0  0  0
   18.8400   18.3863   16.3081 C   0  0  0  0  0  0  0  0  0  0  0  0
   19.3705   19.4993   16.9278 O   0  0  0  0  0  0  0  0  0  0  0  0
   18.3450   18.5162   15.1670 O   0  0  0  0  0  0  0  0  0  0  0  0
  2  1  1  1
  3  2  1  1
  2  4  1  0
  4  5  1  1
  5  6  2  0
  6  7  1  0
  7  8  2  0
  8  9  1  0
  9 10  2  0
  8 11  1  0
 12 11  1  1
 11 13  1  1
 13 14  1  0
 13 15  2  0
 10  5  1  0
M  END
$$$$
