
     RDKit          3D

 15 15  0  0  0  0  0  0  0  0999 V2000
   22.6152   11.3622   14.8029 C   0  0  0  0  0  0  0  0  0  0  0  0
   23.8307   11.6288   13.9373 C   0  0  1  0  0  0  0  0  0  0  0  0
   24.8091   12.4030   14.7311 C   0  0  0  0  0  0  0  0  0  0  0  0
   24.3250   10.3667   13.3290 C   0  0  0  0  0  0  0  0  0  0  0  0
   25.4649   10.4992   12.4329 C   0  0  0  0  0  0  0  0  0  0  0  0
   25.3858   11.2263   11.2748 C   0  0  0  0  0  0  0  0  0  0  0  0
   26.4830   11.3538   10.4144 C   0  0  0  0  0  0  0  0  0  0  0  0
   27.6705   10.7344   10.7380 C   0  0  0  0  0  0  0  0  0  0  0  0
   27.7319   10.0114   11.8997 C   0  0  0  0  0  0  0  0  0  0  0  0
   26.6526    9.8890   12.7412 C   0  0  0  0  0  0  0  0  0  0  0  0
   28.8727   10.8524    9.8310 C   0  0  1  0  0  0  0  0  0  0  0  0
   28.7527    9.7400    8.8222 C   0  0  0  0  0  0  0  0  0  0  0  0
   28.9297   12.1828    9.2462 C   0  0  0  0  0  0  0  0  0  0  0  0
   29.4219   13.2555    9.9611 O   0  0  0  0  0  0  0  0  0  0  0  0
   28.5303   12.3761    8.0770 O   0  0  0  0  0  0  0  0  0  0  0  0
  2  1  1  1
  3  2  1  1
  2  4  1  0
  4  5  1  1
  5  6  2  0
  6  7  1  0
  7  8  2  0
  8  9  1  0
  9 10  2  0
  8 11  1  0
 12 11  1  1
 11 13  1  6
 13 14  1  0
 13 15  2  0
 10  5  1  0
M  END
$$$$
